
  -OEChem-07192415193D

 31 31  0     0  0  0  0  0  0999 V2000
   -0.6847    9.7116   16.0953 C   0  0  0  0  0  0  0  0  0  0  0  0
   -0.7916    8.9560   14.8501 C   0  0  0  0  0  0  0  0  0  0  0  0
   -0.9134    8.2942   13.8394 C   0  0  0  0  0  0  0  0  0  0  0  0
   -1.0827    7.4459   12.6550 C   0  0  0  0  0  0  0  0  0  0  0  0
   -2.4756    7.0638   12.4640 O   0  0  0  0  0  0  0  0  0  0  0  0
   -3.0334    6.1099   13.3146 C   0  0  0  0  0  0  0  0  0  0  0  0
   -2.3232    5.4442   14.3498 C   0  0  0  0  0  0  0  0  0  0  0  0
   -2.9717    4.4898   15.1610 C   0  0  0  0  0  0  0  0  0  0  0  0
   -4.3915    5.7913   13.1107 C   0  0  0  0  0  0  0  0  0  0  0  0
   -5.0426    4.8339   13.9179 C   0  0  0  0  0  0  0  0  0  0  0  0
   -4.3327    4.1806   14.9506 C   0  0  0  0  0  0  0  0  0  0  0  0
   -5.0119    3.1409   15.8222 C   0  0  0  0  0  0  0  0  0  0  0  0
   -4.3699    1.8416   15.5705 N   0  0  0  0  0  0  0  0  0  0  0  0
   -4.8985    0.5933   16.3966 S   0  0  0  0  0  0  0  0  0  0  0  0
   -4.0616   -0.5477   16.0883 O   0  0  0  0  0  0  0  0  0  0  0  0
   -5.3305    1.0020   17.7199 O   0  0  0  0  0  0  0  0  0  0  0  0
   -6.2016    0.2438   15.7072 N   0  0  0  0  0  0  0  0  0  0  0  0
    0.1760    9.3640   16.6748 H   0  0  0  0  0  0  0  0  0  0  0  0
   -0.5590   10.7773   15.8815 H   0  0  0  0  0  0  0  0  0  0  0  0
   -1.5902    9.5768   16.6949 H   0  0  0  0  0  0  0  0  0  0  0  0
   -0.7498    8.0066   11.7764 H   0  0  0  0  0  0  0  0  0  0  0  0
   -0.4374    6.5644   12.7171 H   0  0  0  0  0  0  0  0  0  0  0  0
   -1.2781    5.6465   14.5525 H   0  0  0  0  0  0  0  0  0  0  0  0
   -2.4199    3.9806   15.9477 H   0  0  0  0  0  0  0  0  0  0  0  0
   -4.9337    6.2963   12.3168 H   0  0  0  0  0  0  0  0  0  0  0  0
   -6.0896    4.6054   13.7360 H   0  0  0  0  0  0  0  0  0  0  0  0
   -4.9119    3.4248   16.8763 H   0  0  0  0  0  0  0  0  0  0  0  0
   -6.0813    3.0907   15.5886 H   0  0  0  0  0  0  0  0  0  0  0  0
   -4.2228    1.5638   14.6149 H   0  0  0  0  0  0  0  0  0  0  0  0
   -6.8409    0.3845   16.4762 H   0  0  0  0  0  0  0  0  0  0  0  0
   -6.0355   -0.7321   15.5075 H   0  0  0  0  0  0  0  0  0  0  0  0
  1  2  1  0  0  0  0
  1 18  1  0  0  0  0
  1 19  1  0  0  0  0
  1 20  1  0  0  0  0
  2  3  3  0  0  0  0
  3  4  1  0  0  0  0
  4  5  1  0  0  0  0
  4 21  1  0  0  0  0
  4 22  1  0  0  0  0
  5  6  1  0  0  0  0
  6  7  1  0  0  0  0
  6  9  2  0  0  0  0
  7  8  2  0  0  0  0
  7 23  1  0  0  0  0
  8 11  1  0  0  0  0
  8 24  1  0  0  0  0
  9 10  1  0  0  0  0
  9 25  1  0  0  0  0
 10 11  2  0  0  0  0
 10 26  1  0  0  0  0
 11 12  1  0  0  0  0
 12 13  1  0  0  0  0
 12 27  1  0  0  0  0
 12 28  1  0  0  0  0
 13 14  1  0  0  0  0
 13 29  1  0  0  0  0
 14 15  2  0  0  0  0
 14 16  2  0  0  0  0
 14 17  1  0  0  0  0
 17 30  1  0  0  0  0
 17 31  1  0  0  0  0
M  END
$$$$
