
     RDKit          3D

 43 45  0  0  0  0  0  0  0  0999 V2000
   38.3581   12.3961   20.4609 C   0  0  0  0  0  0  0  0  0  0  0  0
   38.2990   10.9082   20.0865 C   0  0  0  0  0  0  0  0  0  0  0  0
   38.8923   10.0464   21.2126 C   0  0  0  0  0  0  0  0  0  0  0  0
   36.9216   10.5351   19.8471 O   0  0  0  0  0  0  0  0  0  0  0  0
   39.0361   10.6891   18.8589 O   0  0  0  0  0  0  0  0  0  0  0  0
   38.0551   10.3733   17.8514 C   0  0  1  0  0  0  0  0  0  0  0  0
   38.6496    9.4644   16.7533 C   0  0  2  0  0  0  0  0  0  0  0  0
   37.8367    9.4617   15.5679 O   0  0  0  0  0  0  0  0  0  0  0  0
   38.1886    8.2502   14.8564 C   0  0  0  0  0  0  0  0  0  0  0  0
   39.2020    8.5783   13.7464 C   0  0  0  0  0  0  0  0  0  0  0  0
   36.9257    7.6121   14.2544 C   0  0  0  0  0  0  0  0  0  0  0  0
   38.8046    7.3484   15.8172 O   0  0  0  0  0  0  0  0  0  0  0  0
   38.7373    7.9853   17.1125 C   0  0  2  0  0  0  0  0  0  0  0  0
   37.5038    7.4863   17.8938 C   0  0  0  0  0  0  0  0  0  0  0  0
   37.1713    8.3630   18.9970 O   0  0  0  0  0  0  0  0  0  0  0  0
   36.8962    9.7517   18.6474 C   0  0  1  0  0  0  0  0  0  0  0  0
   35.5207    9.9450   17.9145 C   0  0  0  0  0  0  0  0  0  0  0  0
   34.3541    9.8231   18.7793 O   0  0  0  0  0  0  0  0  0  0  0  0
   34.0868    8.3229   19.3617 S   0  0  0  0  0  6  0  0  0  0  0  0
   34.3063    7.3095   18.3363 O   0  0  0  0  0  0  0  0  0  0  0  0
   34.5145    8.2145   20.7475 O   0  0  0  0  0  0  0  0  0  0  0  0
   32.5588    8.2354   19.5650 N   0  0  0  0  0  0  0  0  0  0  0  0
   37.9173   13.0037   19.6655 H   0  0  0  0  0  0  0  0  0  0  0  0
   39.3958   12.7101   20.6074 H   0  0  0  0  0  0  0  0  0  0  0  0
   37.8042   12.5768   21.3869 H   0  0  0  0  0  0  0  0  0  0  0  0
   38.3004   10.1594   22.1256 H   0  0  0  0  0  0  0  0  0  0  0  0
   38.8905    8.9911   20.9261 H   0  0  0  0  0  0  0  0  0  0  0  0
   39.9224   10.3482   21.4221 H   0  0  0  0  0  0  0  0  0  0  0  0
   37.7178   11.3068   17.3899 H   0  0  0  0  0  0  0  0  0  0  0  0
   39.6541    9.8256   16.5075 H   0  0  0  0  0  0  0  0  0  0  0  0
   39.4792    7.6697   13.2034 H   0  0  0  0  0  0  0  0  0  0  0  0
   40.1080    9.0169   14.1741 H   0  0  0  0  0  0  0  0  0  0  0  0
   38.7711    9.2912   13.0372 H   0  0  0  0  0  0  0  0  0  0  0  0
   37.1746    6.6652   13.7663 H   0  0  0  0  0  0  0  0  0  0  0  0
   36.4788    8.2802   13.5127 H   0  0  0  0  0  0  0  0  0  0  0  0
   36.1836    7.4173   15.0321 H   0  0  0  0  0  0  0  0  0  0  0  0
   39.6484    7.7907   17.6877 H   0  0  0  0  0  0  0  0  0  0  0  0
   36.6511    7.3888   17.2201 H   0  0  0  0  0  0  0  0  0  0  0  0
   37.7062    6.4822   18.2786 H   0  0  0  0  0  0  0  0  0  0  0  0
   35.4458    9.2633   17.0620 H   0  0  0  0  0  0  0  0  0  0  0  0
   35.4996   10.9486   17.4789 H   0  0  0  0  0  0  0  0  0  0  0  0
   32.5248    8.4398   20.5526 H   0  0  0  0  0  0  0  0  0  0  0  0
   32.4041    7.2643   19.3527 H   0  0  0  0  0  0  0  0  0  0  0  0
  1  2  1  0
  1 23  1  0
  1 24  1  0
  1 25  1  0
  2  3  1  0
  2  4  1  0
  2  5  1  0
  3 26  1  0
  3 27  1  0
  3 28  1  0
  4 16  1  0
  5  6  1  0
  6  7  1  0
  6 16  1  0
  6 29  1  6
  7  8  1  0
  7 13  1  0
  7 30  1  6
  8  9  1  0
  9 10  1  0
  9 11  1  0
  9 12  1  0
 10 31  1  0
 10 32  1  0
 10 33  1  0
 11 34  1  0
 11 35  1  0
 11 36  1  0
 12 13  1  0
 13 14  1  0
 13 37  1  1
 14 15  1  0
 14 38  1  0
 14 39  1  0
 15 16  1  0
 16 17  1  6
 17 18  1  0
 17 40  1  0
 17 41  1  0
 18 19  1  0
 19 20  2  0
 19 21  2  0
 19 22  1  0
 22 42  1  0
 22 43  1  0
M  END
$$$$
