
  -OEChem-07192415133D

 43 45  0     1  0  0  0  0  0999 V2000
   38.3527   12.3952   20.4544 C   0  0  0  0  0  0  0  0  0  0  0  0
   38.2938   10.9046   20.0866 C   0  0  0  0  0  0  0  0  0  0  0  0
   38.8689   10.0396   21.2212 C   0  0  0  0  0  0  0  0  0  0  0  0
   36.9177   10.5403   19.8316 O   0  0  0  0  0  0  0  0  0  0  0  0
   39.0413   10.6736   18.8665 O   0  0  0  0  0  0  0  0  0  0  0  0
   38.0658   10.3702   17.8505 C   0  0  1  0  0  0  0  0  0  0  0  0
   38.6578    9.4606   16.7523 C   0  0  2  0  0  0  0  0  0  0  0  0
   37.8354    9.4569   15.5743 O   0  0  0  0  0  0  0  0  0  0  0  0
   38.1835    8.2480   14.8585 C   0  0  0  0  0  0  0  0  0  0  0  0
   39.1882    8.5815   13.7439 C   0  0  0  0  0  0  0  0  0  0  0  0
   36.9168    7.6111   14.2638 C   0  0  0  0  0  0  0  0  0  0  0  0
   38.8093    7.3487   15.8153 O   0  0  0  0  0  0  0  0  0  0  0  0
   38.7415    7.9816   17.1123 C   0  0  2  0  0  0  0  0  0  0  0  0
   37.5073    7.4837   17.8958 C   0  0  0  0  0  0  0  0  0  0  0  0
   37.1817    8.3638   18.9962 O   0  0  0  0  0  0  0  0  0  0  0  0
   36.9021    9.7489   18.6378 C   0  0  1  0  0  0  0  0  0  0  0  0
   35.5295    9.9407   17.8970 C   0  0  0  0  0  0  0  0  0  0  0  0
   34.3583    9.8380   18.7579 O   0  0  0  0  0  0  0  0  0  0  0  0
   34.0962    8.3554   19.3831 S   0  0  0  0  0  0  0  0  0  0  0  0
   34.3088    7.3122   18.3876 O   0  0  0  0  0  0  0  0  0  0  0  0
   34.5180    8.2816   20.7727 O   0  0  0  0  0  0  0  0  0  0  0  0
   32.5803    8.2605   19.5850 N   0  0  0  0  0  0  0  0  0  0  0  0
   37.9335   13.0018   19.6465 H   0  0  0  0  0  0  0  0  0  0  0  0
   39.3879   12.7051   20.6235 H   0  0  0  0  0  0  0  0  0  0  0  0
   37.7772   12.5838   21.3653 H   0  0  0  0  0  0  0  0  0  0  0  0
   38.2736   10.1621   22.1305 H   0  0  0  0  0  0  0  0  0  0  0  0
   38.8576    8.9830   20.9409 H   0  0  0  0  0  0  0  0  0  0  0  0
   39.9013   10.3296   21.4349 H   0  0  0  0  0  0  0  0  0  0  0  0
   37.7363   11.3074   17.3919 H   0  0  0  0  0  0  0  0  0  0  0  0
   39.6621    9.8190   16.5018 H   0  0  0  0  0  0  0  0  0  0  0  0
   39.4659    7.6747   13.1993 H   0  0  0  0  0  0  0  0  0  0  0  0
   40.0946    9.0240   14.1662 H   0  0  0  0  0  0  0  0  0  0  0  0
   38.7477    9.2910   13.0375 H   0  0  0  0  0  0  0  0  0  0  0  0
   37.1618    6.6621   13.7779 H   0  0  0  0  0  0  0  0  0  0  0  0
   36.4711    8.2785   13.5206 H   0  0  0  0  0  0  0  0  0  0  0  0
   36.1758    7.4232   15.0442 H   0  0  0  0  0  0  0  0  0  0  0  0
   39.6531    7.7860   17.6852 H   0  0  0  0  0  0  0  0  0  0  0  0
   36.6515    7.3857   17.2268 H   0  0  0  0  0  0  0  0  0  0  0  0
   37.7105    6.4808   18.2829 H   0  0  0  0  0  0  0  0  0  0  0  0
   35.4504    9.2510   17.0519 H   0  0  0  0  0  0  0  0  0  0  0  0
   35.5165   10.9386   17.4488 H   0  0  0  0  0  0  0  0  0  0  0  0
   32.5776    8.3318   20.5925 H   0  0  0  0  0  0  0  0  0  0  0  0
   32.4361    7.3240   19.2438 H   0  0  0  0  0  0  0  0  0  0  0  0
  1  2  1  0  0  0  0
  1 23  1  0  0  0  0
  1 24  1  0  0  0  0
  1 25  1  0  0  0  0
  2  3  1  0  0  0  0
  2  4  1  0  0  0  0
  2  5  1  0  0  0  0
  3 26  1  0  0  0  0
  3 27  1  0  0  0  0
  3 28  1  0  0  0  0
  4 16  1  0  0  0  0
  5  6  1  0  0  0  0
  6  7  1  0  0  0  0
  6 16  1  0  0  0  0
  6 29  1  0  0  0  0
  7  8  1  0  0  0  0
  7 13  1  0  0  0  0
  7 30  1  0  0  0  0
  8  9  1  0  0  0  0
  9 10  1  0  0  0  0
  9 11  1  0  0  0  0
  9 12  1  0  0  0  0
 10 31  1  0  0  0  0
 10 32  1  0  0  0  0
 10 33  1  0  0  0  0
 11 34  1  0  0  0  0
 11 35  1  0  0  0  0
 11 36  1  0  0  0  0
 12 13  1  0  0  0  0
 13 14  1  0  0  0  0
 13 37  1  0  0  0  0
 14 15  1  0  0  0  0
 14 38  1  0  0  0  0
 14 39  1  0  0  0  0
 15 16  1  0  0  0  0
 16 17  1  0  0  0  0
 17 18  1  0  0  0  0
 17 40  1  0  0  0  0
 17 41  1  0  0  0  0
 18 19  1  0  0  0  0
 19 20  2  0  0  0  0
 19 21  2  0  0  0  0
 19 22  1  0  0  0  0
 22 42  1  0  0  0  0
 22 43  1  0  0  0  0
M  END
$$$$
