
     RDKit          3D

 26 27  0  0  0  0  0  0  0  0999 V2000
    0.9094   -1.5547    0.4042 C   0  0  0  0  0  0  0  0  0  0  0  0
    0.7277   -0.1978    0.6917 C   0  0  0  0  0  0  0  0  0  0  0  0
    1.8647   -2.2925    1.1130 C   0  0  0  0  0  0  0  0  0  0  0  0
    1.4956    0.4159    1.6851 C   0  0  0  0  0  0  0  0  0  0  0  0
    2.6294   -1.6813    2.1091 C   0  0  0  0  0  0  0  0  0  0  0  0
    2.4446   -0.3234    2.4047 C   0  0  0  0  0  0  0  0  0  0  0  0
    3.4121    0.7724    6.0129 C   0  0  0  0  0  0  0  0  0  0  0  0
    3.2267    0.3445    3.4822 C   0  0  1  0  0  0  0  0  0  0  0  0
    3.2503   -0.1929    4.8722 C   0  0  1  0  0  0  0  0  0  0  0  0
    1.6624    2.3702    8.0680 C   0  0  0  0  0  0  0  0  0  0  0  0
    2.6748    1.2459    8.2310 C   0  0  0  0  0  0  0  0  0  0  0  0
    4.0846    1.7831    5.9747 O   0  0  0  0  0  0  0  0  0  0  0  0
    4.3771   -0.3295    4.0011 O   0  0  0  0  0  0  0  0  0  0  0  0
    2.6775    0.3660    7.0717 O   0  0  0  0  0  0  0  0  0  0  0  0
    0.3165   -2.0320   -0.3716 H   0  0  0  0  0  0  0  0  0  0  0  0
   -0.0066    0.3828    0.1394 H   0  0  0  0  0  0  0  0  0  0  0  0
    2.0177   -3.3440    0.8840 H   0  0  0  0  0  0  0  0  0  0  0  0
    1.3575    1.4733    1.9016 H   0  0  0  0  0  0  0  0  0  0  0  0
    3.3862   -2.2431    2.6494 H   0  0  0  0  0  0  0  0  0  0  0  0
    3.3620    1.4222    3.3921 H   0  0  0  0  0  0  0  0  0  0  0  0
    2.7095   -1.1119    5.0877 H   0  0  0  0  0  0  0  0  0  0  0  0
    1.9407    3.0278    7.2410 H   0  0  0  0  0  0  0  0  0  0  0  0
    1.6293    2.9683    8.9851 H   0  0  0  0  0  0  0  0  0  0  0  0
    0.6616    1.9679    7.8840 H   0  0  0  0  0  0  0  0  0  0  0  0
    2.4141    0.5882    9.0623 H   0  0  0  0  0  0  0  0  0  0  0  0
    3.6845    1.6348    8.3773 H   0  0  0  0  0  0  0  0  0  0  0  0
  1  2  2  0
  1  3  1  0
  1 15  1  0
  2  4  1  0
  2 16  1  0
  3  5  2  0
  3 17  1  0
  4  6  2  0
  4 18  1  0
  5  6  1  0
  5 19  1  0
  6  8  1  0
  7  9  1  0
  7 12  2  0
  7 14  1  0
  8  9  1  0
  8 13  1  0
  8 20  1  1
  9 13  1  0
  9 21  1  1
 10 11  1  0
 10 22  1  0
 10 23  1  0
 10 24  1  0
 11 14  1  0
 11 25  1  0
 11 26  1  0
M  END
$$$$
