
  -OEChem-03012416093D

 27 27  0     1  0  0  0  0  0999 V2000
    5.9610   -9.1826   13.2111 C   0  0  0  0  0  0  0  0  0  0  0  0
    5.3985   -8.2853   12.2863 C   0  0  0  0  0  0  0  0  0  0  0  0
    4.6388   -8.7538   11.2111 C   0  0  0  0  0  0  0  0  0  0  0  0
    4.4281  -10.1266   11.0302 C   0  0  0  0  0  0  0  0  0  0  0  0
    4.9896  -11.0288   11.9393 C   0  0  0  0  0  0  0  0  0  0  0  0
    5.7464  -10.5556   13.0179 C   0  0  0  0  0  0  0  0  0  0  0  0
    6.7791   -8.6899   14.3840 C   0  0  0  0  0  0  0  0  0  0  0  0
    5.9937   -7.8510   15.4046 C   0  0  1  0  0  0  0  0  0  0  0  0
    5.5840   -6.4203   14.8695 C   0  0  0  0  0  0  0  0  0  0  0  0
    6.4752   -5.8202   14.2235 O   0  5  0  0  0  0  0  0  0  0  0  0
    4.4138   -6.0529   15.1750 O   0  0  0  0  0  0  0  0  0  0  0  0
    4.7418   -8.5000   15.8378 N   0  0  0  0  0  0  0  0  0  0  0  0
    4.7173   -9.5159   17.1201 S   0  0  0  0  0  0  0  0  0  0  0  0
    5.1815  -10.9602   16.3285 N   0  0  0  0  0  0  0  0  0  0  0  0
    5.7789   -9.3073   18.1151 O   0  0  0  0  0  0  0  0  0  0  0  0
    3.3231   -9.6069   17.5856 O   0  0  0  0  0  0  0  0  0  0  0  0
    5.5612   -7.2201   12.4232 H   0  0  0  0  0  0  0  0  0  0  0  0
    4.2066   -8.0421   10.5105 H   0  0  0  0  0  0  0  0  0  0  0  0
    3.8350  -10.4870   10.1919 H   0  0  0  0  0  0  0  0  0  0  0  0
    4.8384  -12.0993   11.8101 H   0  0  0  0  0  0  0  0  0  0  0  0
    6.1790  -11.2576   13.7270 H   0  0  0  0  0  0  0  0  0  0  0  0
    7.2278   -9.5501   14.8910 H   0  0  0  0  0  0  0  0  0  0  0  0
    7.5856   -8.0398   14.0306 H   0  0  0  0  0  0  0  0  0  0  0  0
    6.6447   -7.6749   16.2691 H   0  0  0  0  0  0  0  0  0  0  0  0
    4.0289   -7.7471   15.8991 H   0  0  0  0  0  0  0  0  0  0  0  0
    5.2253  -11.6975   17.0338 H   0  0  0  0  0  0  0  0  0  0  0  0
    4.4638  -11.1844   15.6382 H   0  0  0  0  0  0  0  0  0  0  0  0
  1  2  1  0  0  0  0
  1  6  2  0  0  0  0
  1  7  1  0  0  0  0
  2  3  2  0  0  0  0
  2 17  1  0  0  0  0
  3  4  1  0  0  0  0
  3 18  1  0  0  0  0
  4  5  2  0  0  0  0
  4 19  1  0  0  0  0
  5  6  1  0  0  0  0
  5 20  1  0  0  0  0
  6 21  1  0  0  0  0
  7  8  1  0  0  0  0
  7 22  1  0  0  0  0
  7 23  1  0  0  0  0
  8  9  1  0  0  0  0
  8 12  1  0  0  0  0
  8 24  1  0  0  0  0
  9 10  1  0  0  0  0
  9 11  2  0  0  0  0
 12 13  1  0  0  0  0
 12 25  1  0  0  0  0
 13 14  1  0  0  0  0
 13 15  2  0  0  0  0
 13 16  2  0  0  0  0
 14 26  1  0  0  0  0
 14 27  1  0  0  0  0
M  CHG  1  10  -1
M  END
$$$$
